Circuit: * C:\Users\peter\Desktop\IEP\Experiment 11 - Amplifier Frequency Response\Experiment 11.asc

Number of points reduced from 100000 to 65535.
Direct Newton iteration for .op point succeeded.

Date: Thu Feb 27 09:58:28 2020
Total elapsed time: 0.268 seconds.

tnom = 27
temp = 27
method = trap
totiter = 7
traniter = 0
tranpoints = 0
accept = 0
rejected = 0
matrix size = 9
fillins = 0
solver = Normal
Matrix Compiler1:      19 opcodes
Matrix Compiler2: 633 bytes object code size
