Circuit: * C:\Users\peter\Desktop\IEP\Activity 6 - RL Circuit Response\Experiment 6.asc


Date: Sat Feb 22 15:19:39 2020
Total elapsed time: 0.020 seconds.

tnom = 27
temp = 27
method = trap
totiter = 0
traniter = 0
tranpoints = 0
accept = 0
rejected = 0
matrix size = 3
fillins = 1
solver = Normal

