Circuit: * C:\Users\peter\Desktop\IEP\Experiment 7 - Frequency Response\Experiment 7A.asc


Date: Sat Jun 20 08:01:07 2020
Total elapsed time: 0.022 seconds.

tnom = 27
temp = 27
method = trap
totiter = 0
traniter = 0
tranpoints = 0
accept = 0
rejected = 0
matrix size = 3
fillins = 0
solver = Normal

