Circuit: * C:\Users\peter\Desktop\IEP\Experiment 7 - Frequency Response\Experiment 7B.asc


Date: Thu Feb 27 01:45:37 2020
Total elapsed time: 0.030 seconds.

tnom = 27
temp = 27
method = trap
totiter = 0
traniter = 0
tranpoints = 0
accept = 0
rejected = 0
matrix size = 4
fillins = 0
solver = Normal

