Circuit: * C:\Users\peter\Desktop\IEP\Experiment 10 - Coupling Capacitors\Experiment 10.asc

Direct Newton iteration for .op point succeeded.

Date: Thu Feb 27 09:50:33 2020
Total elapsed time: 0.153 seconds.

tnom = 27
temp = 27
method = modified trap
totiter = 20041
traniter = 20034
tranpoints = 10018
accept = 10018
rejected = 0
matrix size = 9
fillins = 0
solver = Normal
Matrix Compiler1: 314 bytes object code size  0.1/0.1/[0.1]
Matrix Compiler2: off  [0.1]/0.1/0.1

