Circuit: * C:\Users\peter\Desktop\IEP\Experiment 9 - SSM Model\Experiment 9.asc

V1: Missing value, assumed 0V @ DC

Date: Sat Jun 20 07:59:18 2020
Total elapsed time: 0.052 seconds.

tnom = 27
temp = 27
method = trap
totiter = 2005
traniter = 0
tranpoints = 0
accept = 0
rejected = 0
matrix size = 6
fillins = 0
solver = Normal
Matrix Compiler1: 200 bytes object code size  0.1/0.0/[0.0]
Matrix Compiler2: off  [0.0]/0.1/0.1

