Circuit: * C:\Users\peter\Desktop\IEP\Experiment 8 - JFET Amplifier\Experiment 8.asc

Direct Newton iteration for .op point succeeded.

Date: Sat Jun 20 08:00:54 2020
Total elapsed time: 0.161 seconds.

tnom = 27
temp = 27
method = modified trap
totiter = 20041
traniter = 20034
tranpoints = 10018
accept = 10018
rejected = 0
matrix size = 8
fillins = 0
solver = Normal
Matrix Compiler1: 264 bytes object code size  0.1/0.0/[0.0]
Matrix Compiler2: 560 bytes object code size  0.0/0.1/[0.0]

